144

O          4.94910       -2.04998       -3.17932
O         -4.94910        2.04998       -3.17932
O          2.04998        4.94910       -3.17932
O         -2.04998       -4.94910       -3.17932
O          2.04998       -4.94910       -3.17932
O         -2.04998        4.94910       -3.17932
O          4.94910        2.04998       -3.17932
O         -4.94910       -2.04998       -3.17932
C         -5.20133       -2.15446       -1.99081
N         -4.99606       -3.29483       -1.21892
C         -5.74026       -3.21859       -0.00000
N         -4.99606       -3.29483        1.21892
C         -5.20133       -2.15446        1.99081
O         -4.94910       -2.04998        3.17932
H         -6.54629       -3.96243       -0.00000
H         -7.43079       -1.82706       -0.00000
N          4.99606        3.29483       -1.21892
C          5.74026        3.21859        0.00000
N          4.99606        3.29483        1.21892
C          5.20133        2.15446        1.99081
N          5.86255        1.20295        1.21892
C          6.33487        1.78309        0.00000
N          5.86255        1.20295       -1.21892
C          5.20133        2.15446       -1.99081
H          7.43079        1.82706        0.00000
O          4.94910        2.04998        3.17932
H          6.54629        3.96243        0.00000
N          1.20295        5.86255       -1.21892
C          1.78309        6.33487        0.00000
N          1.20295        5.86255        1.21892
C          2.15446        5.20133        1.99081
N          3.29483        4.99606        1.21892
C          3.21859        5.74026        0.00000
N          3.29483        4.99606       -1.21892
C          2.15446        5.20133       -1.99081
H          3.96243        6.54629        0.00000
O          2.04998        4.94910        3.17932
H          1.82706        7.43079        0.00000
N         -3.29483       -4.99606        1.21892
C         -3.21859       -5.74026       -0.00000
N         -3.29483       -4.99606       -1.21892
C         -2.15446       -5.20133       -1.99081
N         -1.20295       -5.86255       -1.21892
C         -1.78309       -6.33487       -0.00000
N         -1.20295       -5.86255        1.21892
C         -2.15446       -5.20133        1.99081
O         -2.04998       -4.94910        3.17932
H         -1.82706       -7.43079       -0.00000
H         -3.96243       -6.54629       -0.00000
N          4.99606       -3.29483        1.21892
C          5.74026       -3.21859        0.00000
N          4.99606       -3.29483       -1.21892
C          5.20133       -2.15446       -1.99081
N          5.86255       -1.20295       -1.21892
C          6.33487       -1.78309        0.00000
N          5.86255       -1.20295        1.21892
C          5.20133       -2.15446        1.99081
O          4.94910       -2.04998        3.17932
H          7.43079       -1.82706        0.00000
H          6.54629       -3.96243        0.00000
C         -5.20133        2.15446        1.99081
N         -4.99606        3.29483        1.21892
C         -5.74026        3.21859       -0.00000
N         -4.99606        3.29483       -1.21892
C         -5.20133        2.15446       -1.99081
H         -6.54629        3.96243       -0.00000
O         -4.94910        2.04998        3.17932
H         -7.43079        1.82706       -0.00000
N          1.20295       -5.86255        1.21892
C          1.78309       -6.33487       -0.00000
N          1.20295       -5.86255       -1.21892
C          2.15446       -5.20133       -1.99081
N          3.29483       -4.99606       -1.21892
C          3.21859       -5.74026        0.00000
N          3.29483       -4.99606        1.21892
C          2.15446       -5.20133        1.99081
O          2.04998       -4.94910        3.17932
H          3.96243       -6.54629        0.00000
H          1.82706       -7.43079       -0.00000
N         -3.29483        4.99606       -1.21892
C         -3.21859        5.74026       -0.00000
N         -3.29483        4.99606        1.21892
C         -2.15446        5.20133        1.99081
N         -1.20295        5.86255        1.21892
C         -1.78309        6.33487        0.00000
N         -1.20295        5.86255       -1.21892
C         -2.15446        5.20133       -1.99081
H         -1.82706        7.43079        0.00000
O         -2.04998        4.94910        3.17932
H         -3.96243        6.54629       -0.00000
C          6.39866       -0.00000       -1.79100
C          6.39866       -0.00000        1.79100
N         -5.86255        1.20295        1.21892
C         -6.33487        1.78309       -0.00000
N         -5.86255        1.20295       -1.21892
N         -5.86255       -1.20295       -1.21892
C         -6.33487       -1.78309       -0.00000
N         -5.86255       -1.20295        1.21892
C         -6.39866        0.00000       -1.79100
C         -6.39866        0.00000        1.79100
C          4.52453       -4.52453       -1.79100
C          4.52453       -4.52453        1.79100
C         -0.00000       -6.39866       -1.79100
C         -0.00000       -6.39866        1.79100
C         -4.52453       -4.52453       -1.79100
C         -4.52453       -4.52453        1.79100
C          4.52453        4.52453       -1.79100
C          4.52453        4.52453        1.79100
C          0.00000        6.39866       -1.79100
C          0.00000        6.39866        1.79100
C         -4.52453        4.52453       -1.79100
C         -4.52453        4.52453        1.79100
H          6.20969       -0.00000       -2.86927
H          7.48776       -0.00000       -1.66691
H          6.20969       -0.00000        2.86927
H          7.48776       -0.00000        1.66691
H         -6.20969        0.00000       -2.86927
H         -7.48776        0.00000       -1.66691
H         -7.48776        0.00000        1.66691
H         -6.20969        0.00000        2.86927
H          5.29465       -5.29465       -1.66691
H          4.39091       -4.39091       -2.86927
H          4.39091       -4.39091        2.86927
H          5.29465       -5.29465        1.66691
H         -0.00000       -6.20969       -2.86927
H         -0.00000       -7.48776       -1.66691
H         -0.00000       -7.48776        1.66691
H         -0.00000       -6.20969        2.86927
H         -4.39091       -4.39091       -2.86927
H         -5.29465       -5.29465       -1.66691
H         -5.29465       -5.29465        1.66691
H         -4.39091       -4.39091        2.86927
H          4.39091        4.39091       -2.86927
H          5.29465        5.29465       -1.66691
H          5.29465        5.29465        1.66691
H          4.39091        4.39091        2.86927
H          0.00000        6.20969       -2.86927
H          0.00000        7.48776       -1.66691
H          0.00000        7.48776        1.66691
H          0.00000        6.20969        2.86927
H         -5.29465        5.29465       -1.66691
H         -4.39091        4.39091       -2.86927
H         -4.39091        4.39091        2.86927
H         -5.29465        5.29465        1.66691
